52
0 1

Re   6.358094   4.874444   4.640773
I   7.783931   2.544206   5.191320
I   4.352299   3.029591   4.064717
P   7.947221   5.936011   6.151763
C   7.594543   6.543952   3.758256
C   6.233701   6.914348   3.663906
C   5.647637   5.958006   2.799036
C   6.631676   5.026297   2.343013
C   7.857229   5.376458   2.926582
C   5.600674   8.154866   4.209037
H   4.724365   7.948993   4.537513
H   6.139046   8.499748   4.925394
C   4.244195   6.097014   2.250411
H   4.250103   6.709355   1.511339
H   3.930435   5.240089   1.955132
H   3.664656   6.430458   2.938813
C   6.403824   3.957340   1.334871
H   6.332962   4.349731   0.461264
H   7.138696   3.340601   1.350596
H   5.591191   3.490167   1.542789
C   9.233780   4.779953   2.664500
H   9.659152   5.257685   1.949890
H   9.768464   4.849458   3.459482
H   9.140564   3.855284   2.421638
C   8.563459   7.039280   4.825803
H   9.490091   6.866839   4.596918
H   8.439096   7.978026   5.035469
C   9.391647   5.077326   6.885767
C   10.628358   5.169705   6.417514
H   10.786363   5.688787   5.662718
C   11.692313   4.517773   7.018556
H   12.555160   4.606633   6.683091
C   11.445011   3.736511   8.121047
H   12.142504   3.261419   8.514170
C   10.202223   3.650290   8.639970
H   10.052820   3.158482   9.415732
C   9.144542   4.297823   8.012720
H   8.278410   4.210723   8.342943
C   7.396913   6.982093   7.523500
C   7.868611   8.252524   7.696474
H   8.412958   8.624679   7.041269
C   6.776657   8.429364   9.779153
C   6.320332   7.143976   9.662089
H   5.814700   6.767422   10.345250
C   6.613004   6.404064   8.528148
H   6.291587   5.535702   8.435546
C   5.049610   5.289358   5.903834
O   4.212164   5.580571   6.518853
C   7.564887   8.992436   8.800713
H   7.885209   9.861678   8.891568
H   6.550282   8.929970   10.528707
H   5.535998   8.812957   3.511899
